9
Frame 0
He 0.49053 8.41351 0.0777257
He 8.83761 3.24384 1.10774
He 8.44308 0.881072 4.15197
He 10.1038 2.08511 5.20795
He 9.79016 0.689489 7.2124
He 0.67893 1.12635 0.706026
He 8.80607 0.959083 1.30678
He 0.176178 0.904281 2.90161
He 0.675459 3.93581 5.86947
9
Frame 1
He 0.411134 8.411223 0.116507
He 8.661996 3.047462 1.079060
He 8.480960 0.867459 4.217944
He 10.152094 2.107277 5.185054
He 9.700949 0.586487 7.306523
He 0.715152 1.269628 0.723406
He 8.898195 0.926812 1.245576
He 0.191808 0.916165 2.938939
He 0.498769 3.897557 5.812576